 36
 Clone # 1 / Geom #1, <SCF> = -461.71059148
 C        0.50000        0.50000        0.00000  
 H        0.50000        1.30000        0.80000  
 H        0.50000        1.30000       -0.80000  
 C        1.50000       -0.50000        0.00000  
 H        1.50000       -1.30000        0.80000  
 H        1.50000       -1.30000       -0.80000  
 C        2.50000        0.50000        0.00000  
 H        2.50000        1.30000        0.80000  
 H        2.50000        1.30000       -0.80000  
 C        3.50000       -0.50000        0.00000  
 H        3.50000       -1.30000        0.80000  
 H        3.50000       -1.30000       -0.80000  
 C        4.50000        0.50000        0.00000  
 H        4.50000        1.30000        0.80000  
 H        4.50000        1.30000       -0.80000  
 C        5.50000       -0.50000        0.00000  
 H        5.50000       -1.30000        0.80000  
 H        5.50000       -1.30000       -0.80000  
 C        6.50000        0.50000        0.00000  
 H        6.50000        1.30000        0.80000  
 H        6.50000        1.30000       -0.80000  
 C        7.50000       -0.50000        0.00000  
 H        7.50000       -1.30000        0.80000  
 H        7.50000       -1.30000       -0.80000  
 C        8.50000        0.50000        0.00000  
 H        8.50000        1.30000        0.80000  
 H        8.50000        1.30000       -0.80000  
 C        9.50000       -0.50000        0.00000  
 H        9.50000       -1.30000        0.80000  
 H        9.50000       -1.30000       -0.80000  
 C       10.50000        0.50000        0.00000  
 H       10.50000        1.30000        0.80000  
 H       10.50000        1.30000       -0.80000  
 C       11.50000       -0.50000        0.00000  
 H       11.50000       -1.30000        0.80000  
 H       11.50000       -1.30000       -0.80000  
 36
 Clone # 1 / Geom #2, <SCF> = -462.51571638
 C        0.55669        0.47769       -0.00166  
 H        0.55668        1.23100        0.78240  
 H        0.55671        1.23099       -0.78572  
 C        1.67004       -0.47777       -0.00163  
 H        1.67003       -1.23099        0.78249  
 H        1.67006       -1.23099       -0.78574  
 C        2.78338        0.47771       -0.00162  
 H        2.78336        1.23094        0.78245  
 H        2.78337        1.23094       -0.78567  
 C        3.89675       -0.47774       -0.00161  
 H        3.89677       -1.23093        0.78249  
 H        3.89676       -1.23095       -0.78569  
 C        5.01007        0.47777       -0.00164  
 H        5.01007        1.23097        0.78249  
 H        5.01005        1.23095       -0.78577  
 C        6.12343       -0.47770       -0.00164  
 H        6.12343       -1.23092        0.78245  
 H        6.12343       -1.23091       -0.78573  
 C        7.23677        0.47777       -0.00163  
 H        7.23679        1.23094        0.78250  
 H        7.23677        1.23097       -0.78572  
 C        8.35011       -0.47772       -0.00166  
 H        8.35012       -1.23091        0.78245  
 H        8.35008       -1.23090       -0.78578  
 C        9.46346        0.47776       -0.00169  
 H        9.46347        1.23101        0.78240  
 H        9.46344        1.23099       -0.78578  
 C       10.57681       -0.47771       -0.00170  
 H       10.57682       -1.23097        0.78237  
 H       10.57681       -1.23095       -0.78578  
 C       11.69017        0.47775       -0.00170  
 H       11.69018        1.23097        0.78240  
 H       11.69019        1.23095       -0.78580  
 C       12.80350       -0.47774       -0.00167  
 H       12.80347       -1.23098        0.78241  
 H       12.80350       -1.23098       -0.78575  
 36
 Clone # 1 / Geom #3, <SCF> = -462.81512360
 C        0.60145        0.45318        0.00578  
 H        0.60155        1.18802        0.80593  
 H        0.60161        1.18797       -0.79435  
 C        1.80480       -0.45443        0.00584  
 H        1.80480       -1.18909        0.80623  
 H        1.80484       -1.18918       -0.79457  
 C        3.00819        0.45330        0.00584  
 H        3.00799        1.18808        0.80611  
 H        3.00800        1.18807       -0.79440  
 C        4.21211       -0.45388        0.00585  
 H        4.21230       -1.18861        0.80618  
 H        4.21230       -1.18860       -0.79446  
 C        5.41551        0.45390        0.00584  
 H        5.41538        1.18858        0.80625  
 H        5.41537        1.18861       -0.79459  
 C        6.61930       -0.45350        0.00584  
 H        6.61931       -1.18827        0.80615  
 H        6.61930       -1.18829       -0.79448  
 C        7.82309        0.45391        0.00583  
 H        7.82317        1.18864        0.80628  
 H        7.82312        1.18866       -0.79455  
 C        9.02673       -0.45368        0.00576  
 H        9.02682       -1.18842        0.80620  
 H        9.02675       -1.18837       -0.79469  
 C       10.23016        0.45403        0.00573  
 H       10.23006        1.18882        0.80604  
 H       10.23002        1.18882       -0.79459  
 C       11.43382       -0.45323        0.00570  
 H       11.43392       -1.18802        0.80591  
 H       11.43391       -1.18798       -0.79453  
 C       12.63725        0.45432        0.00571  
 H       12.63748        1.18895        0.80609  
 H       12.63752        1.18895       -0.79472  
 C       13.83991       -0.45395        0.00576  
 H       13.83953       -1.18862        0.80605  
 H       13.83958       -1.18866       -0.79455  
 36
 Clone # 1 / Geom #4, <SCF> = -462.92474796
 C        0.62389        0.43837        0.00685  
 H        0.62358        1.13814        0.84089  
 H        0.62369        1.13802       -0.82726  
 C        1.87237       -0.43792        0.00689  
 H        1.87258       -1.13754        0.84107  
 H        1.87257       -1.13699       -0.82773  
 C        3.12056        0.43872        0.00691  
 H        3.12063        1.13827        0.84109  
 H        3.12064        1.13825       -0.82728  
 C        4.36889       -0.43773        0.00692  
 H        4.36878       -1.13704        0.84129  
 H        4.36884       -1.13730       -0.82725  
 C        5.61722        0.43879        0.00691  
 H        5.61750        1.13817        0.84130  
 H        5.61749        1.13815       -0.82751  
 C        6.86520       -0.43825        0.00691  
 H        6.86503       -1.13788        0.84103  
 H        6.86496       -1.13761       -0.82741  
 C        8.11382        0.43772        0.00688  
 H        8.11406        1.13699        0.84130  
 H        8.11394        1.13718       -0.82738  
 C        9.36189       -0.43915        0.00685  
 H        9.36183       -1.13825        0.84142  
 H        9.36175       -1.13872       -0.82736  
 C       10.60998        0.43762        0.00678  
 H       10.60972        1.13716        0.84098  
 H       10.60967        1.13710       -0.82748  
 C       11.85854       -0.43841        0.00677  
 H       11.85857       -1.13798        0.84094  
 H       11.85856       -1.13798       -0.82739  
 C       13.10660        0.43838        0.00679  
 H       13.10635        1.13764        0.84124  
 H       13.10640        1.13760       -0.82771  
 C       14.35474       -0.43822        0.00682  
 H       14.35494       -1.13763        0.84112  
 H       14.35500       -1.13760       -0.82751  
 36
 Clone # 1 / Geom #5, <SCF> = -462.95591927
 C        0.63039        0.43614        0.00687  
 H        0.63118        1.06674        0.89465  
 H        0.63131        1.06671       -0.88092  
 C        1.89012       -0.43817        0.00691  
 H        1.88960       -1.06821        0.89507  
 H        1.88953       -1.06795       -0.88143  
 C        3.15074        0.43528        0.00693  
 H        3.15104        1.06560        0.89495  
 H        3.15104        1.06562       -0.88108  
 C        4.41111       -0.43827        0.00694  
 H        4.41122       -1.06827        0.89502  
 H        4.41135       -1.06843       -0.88104  
 C        5.67090        0.43599        0.00693  
 H        5.67034        1.06594        0.89515  
 H        5.67034        1.06581       -0.88139  
 C        6.93187       -0.43703        0.00691  
 H        6.93285       -1.06737        0.89482  
 H        6.93282       -1.06712       -0.88117  
 C        8.19159        0.43716        0.00689  
 H        8.19137        1.06698        0.89509  
 H        8.19123        1.06712       -0.88120  
 C        9.45222       -0.43599        0.00684  
 H        9.45288       -1.06570        0.89520  
 H        9.45265       -1.06600       -0.88131  
 C       10.71202        0.43834        0.00673  
 H       10.71204        1.06867        0.89469  
 H       10.71196        1.06854       -0.88131  
 C       11.97229       -0.43519        0.00673  
 H       11.97187       -1.06558        0.89468  
 H       11.97192       -1.06554       -0.88125  
 C       13.23294        0.43812        0.00678  
 H       13.23348        1.06784        0.89520  
 H       13.23355        1.06784       -0.88164  
 C       14.49246       -0.43652        0.00682  
 H       14.49172       -1.06656        0.89500  
 H       14.49178       -1.06651       -0.88141  
 36
 Clone # 1 / Geom #6, <SCF> = -462.96208289
 C        0.63932        0.43115        0.00737  
 H        0.63922        1.07857        0.88152  
 H        0.63935        1.07859       -0.86677  
 C        1.91859       -0.42948        0.00742  
 H        1.91880       -1.07697        0.88148  
 H        1.91883       -1.07699       -0.86664  
 C        3.19739        0.43186        0.00744  
 H        3.19729        1.07919        0.88167  
 H        3.19730        1.07924       -0.86675  
 C        4.47622       -0.42949        0.00745  
 H        4.47597       -1.07695        0.88151  
 H        4.47594       -1.07702       -0.86655  
 C        5.75567        0.43100        0.00741  
 H        5.75619        1.07854        0.88145  
 H        5.75618        1.07845       -0.86671  
 C        7.03424       -0.43081        0.00740  
 H        7.03424       -1.07824        0.88151  
 H        7.03422       -1.07820       -0.86674  
 C        8.31329        0.42989        0.00735  
 H        8.31299        1.07742        0.88136  
 H        8.31293        1.07720       -0.86682  
 C        9.59217       -0.43146        0.00731  
 H        9.59205       -1.07903        0.88136  
 H        9.59192       -1.07889       -0.86680  
 C       10.87142        0.42941        0.00719  
 H       10.87194        1.07696        0.88122  
 H       10.87194        1.07687       -0.86691  
 C       12.15033       -0.43158        0.00719  
 H       12.15046       -1.07915        0.88126  
 H       12.15047       -1.07867       -0.86718  
 C       13.42894        0.43001        0.00726  
 H       13.42862        1.07756        0.88129  
 H       13.42866        1.07742       -0.86687  
 C       14.70830       -0.43048        0.00731  
 H       14.70831       -1.07796        0.88141  
 H       14.70833       -1.07792       -0.86682  
