 15
 Clone # 1 / Geom #1, <SCF> = -467.02340873
 N        0.44800       -1.96100        0.00000  
 C        1.64100       -1.34300       -0.00100  
 N        1.91100       -0.03400       -0.00100  
 C        0.78500        0.69000        0.00000  
 C       -0.52700        0.20400        0.00000  
 C       -0.66200       -1.20100        0.00000  
 N       -1.87100       -1.81000        0.00000  
 H       -2.71700       -1.26300        0.00000  
 H       -1.91400       -2.81700       -0.00200  
 N       -1.45200        1.23600        0.00000  
 C       -0.71400        2.31900        0.00000  
 N        0.64200        2.06100        0.00000  
 H        1.39600        2.73300       -0.00100  
 H       -1.09400        3.33300        0.00000  
 H        2.50500       -2.00600       -0.00100  
 15
 Clone # 1 / Geom #2, <SCF> = -467.02651054
 N        0.45666       -1.98586       -0.00041  
 C        1.67894       -1.37838       -0.00100  
 N        1.92599       -0.03845       -0.00054  
 C        0.78574        0.70298        0.00005  
 C       -0.53296        0.19682        0.00007  
 C       -0.67405       -1.21468       -0.00001  
 N       -1.88981       -1.82465        0.00004  
 H       -2.73996       -1.27441       -0.00042  
 H       -1.93077       -2.83668       -0.00145  
 N       -1.46441        1.24458        0.00012  
 C       -0.72494        2.36528       -0.00002  
 N        0.64400        2.08885       -0.00003  
 H        1.40635        2.75683       -0.00098  
 H       -1.11002        3.37897       -0.00012  
 H        2.54626       -2.04019       -0.00132  
 15
 Clone # 1 / Geom #3, <SCF> = -467.02680874
 N        0.44876       -1.98199       -0.00055  
 C        1.66118       -1.36152       -0.00098  
 N        1.93459       -0.03076       -0.00054  
 C        0.79372        0.69834       -0.00001  
 C       -0.53033        0.20297        0.00002  
 C       -0.67386       -1.20664       -0.00008  
 N       -1.88477       -1.82064        0.00006  
 H       -2.73636       -1.27227       -0.00042  
 H       -1.92019       -2.83326       -0.00127  
 N       -1.47328        1.24050        0.00007  
 C       -0.72175        2.34575       -0.00005  
 N        0.64955        2.07882       -0.00003  
 H        1.41156        2.74812       -0.00080  
 H       -1.10738        3.35850       -0.00014  
 H        2.52557       -2.02492       -0.00128  
 15
 Clone # 1 / Geom #4, <SCF> = -467.02689400
 N        0.45276       -1.98681       -0.00047  
 C        1.66822       -1.37181       -0.00093  
 N        1.92896       -0.03549       -0.00064  
 C        0.78882        0.70075       -0.00012  
 C       -0.53115        0.19872       -0.00001  
 C       -0.67445       -1.21055       -0.00013  
 N       -1.88653       -1.82340        0.00002  
 H       -2.73823       -1.27514       -0.00059  
 H       -1.92130       -2.83600       -0.00112  
 N       -1.46573        1.24615        0.00011  
 C       -0.72324        2.35954       -0.00001  
 N        0.64566        2.08455       -0.00008  
 H        1.40919        2.75197       -0.00080  
 H       -1.11052        3.37198       -0.00001  
 H        2.53454       -2.03346       -0.00124  
 15
 Clone # 1 / Geom #5, <SCF> = -467.02692611
 N        0.45053       -1.98288       -0.00053  
 C        1.66443       -1.36580       -0.00089  
 N        1.93259       -0.03237       -0.00063  
 C        0.79163        0.69950       -0.00018  
 C       -0.53109        0.20169       -0.00003  
 C       -0.67533       -1.20687       -0.00017  
 N       -1.88624       -1.82134        0.00000  
 H       -2.73855       -1.27410       -0.00053  
 H       -1.91923       -2.83406       -0.00112  
 N       -1.47166        1.24298        0.00013  
 C       -0.72194        2.34993        0.00000  
 N        0.64885        2.08108       -0.00012  
 H        1.41196        2.74916       -0.00078  
 H       -1.10881        3.36227        0.00002  
 H        2.52985       -2.02820       -0.00118  
 15
 Clone # 1 / Geom #6, <SCF> = -467.02693936
 N        0.45143       -1.98580       -0.00060  
 C        1.66567       -1.36964       -0.00089  
 N        1.93007       -0.03431       -0.00067  
 C        0.78990        0.70029       -0.00022  
 C       -0.53091        0.19966       -0.00003  
 C       -0.67505       -1.20899       -0.00020  
 N       -1.88618       -1.82329       -0.00002  
 H       -2.73858       -1.27621       -0.00052  
 H       -1.91889       -2.83600       -0.00107  
 N       -1.46725        1.24594        0.00017  
 C       -0.72256        2.35719        0.00000  
 N        0.64682        2.08341       -0.00014  
 H        1.41060        2.75055       -0.00074  
 H       -1.10986        3.36957        0.00001  
 H        2.53179       -2.03136       -0.00111  
 15
 Clone # 1 / Geom #7, <SCF> = -467.02694574
 N        0.45096       -1.98355       -0.00060  
 C        1.66509       -1.36726       -0.00086  
 N        1.93176       -0.03300       -0.00072  
 C        0.79098        0.69980       -0.00028  
 C       -0.53123        0.20115       -0.00004  
 C       -0.67550       -1.20724       -0.00022  
 N       -1.88643       -1.82181       -0.00005  
 H       -2.73897       -1.27494       -0.00056  
 H       -1.91874       -2.83455       -0.00103  
 N       -1.47063        1.24405        0.00021  
 C       -0.72210        2.35203        0.00003  
 N        0.64830        2.08183       -0.00019  
 H        1.41179        2.74945       -0.00076  
 H       -1.10915        3.36436        0.00009  
 H        2.53086       -2.02932       -0.00103  
 15
 Clone # 1 / Geom #8, <SCF> = -467.02694895
 N        0.45110       -1.98512       -0.00060  
 C        1.66514       -1.36883       -0.00086  
 N        1.93055       -0.03384       -0.00071  
 C        0.79024        0.70011       -0.00029  
 C       -0.53100        0.20010       -0.00008  
 C       -0.67528       -1.20835       -0.00023  
 N       -1.88619       -1.82300       -0.00003  
 H       -2.73880       -1.27627       -0.00051  
 H       -1.91835       -2.83575       -0.00097  
 N       -1.46818        1.24557        0.00010  
 C       -0.72232        2.35581       -0.00001  
 N        0.64732        2.08293       -0.00016  
 H        1.41114        2.75006       -0.00061  
 H       -1.10955        3.36817        0.00006  
 H        2.53118       -2.03061       -0.00110  
 15
 Clone # 1 / Geom #9, <SCF> = -467.02695054
 N        0.45101       -1.98396       -0.00065  
 C        1.66514       -1.36782       -0.00081  
 N        1.93137       -0.03327       -0.00064  
 C        0.79074        0.69992       -0.00032  
 C       -0.53120        0.20088       -0.00006  
 C       -0.67551       -1.20748       -0.00026  
 N       -1.88640       -1.82214       -0.00008  
 H       -2.73904       -1.27545       -0.00051  
 H       -1.91846       -2.83489       -0.00102  
 N       -1.46995        1.24456        0.00022  
 C       -0.72216        2.35315        0.00003  
 N        0.64803        2.08218       -0.00025  
 H        1.41167        2.74960       -0.00077  
 H       -1.10928        3.36548        0.00014  
 H        2.53103       -2.02975       -0.00102  
 15
 Clone # 1 / Geom #10, <SCF> = -467.02695127
 N        0.45101       -1.98480       -0.00063  
 C        1.66504       -1.36855       -0.00082  
 N        1.93075       -0.03367       -0.00064  
 C        0.79038        0.70005       -0.00032  
 C       -0.53107        0.20035       -0.00012  
 C       -0.67538       -1.20805       -0.00026  
 N       -1.88623       -1.82278       -0.00005  
 H       -2.73891       -1.27617       -0.00044  
 H       -1.91820       -2.83554       -0.00094  
 N       -1.46868        1.24535        0.00005  
 C       -0.72225        2.35509       -0.00003  
 N        0.64755        2.08271       -0.00019  
 H        1.41135        2.74988       -0.00057  
 H       -1.10944        3.36745        0.00008  
 H        2.53107       -2.03033       -0.00115  
 15
 Clone # 1 / Geom #11, <SCF> = -467.02695172
 N        0.45102       -1.98419       -0.00069  
 C        1.66512       -1.36805       -0.00079  
 N        1.93120       -0.03339       -0.00058  
 C        0.79064        0.69996       -0.00033  
 C       -0.53116        0.20073       -0.00009  
 C       -0.67549       -1.20762       -0.00029  
 N       -1.88637       -1.82231       -0.00010  
 H       -2.73904       -1.27567       -0.00044  
 H       -1.91836       -2.83507       -0.00097  
 N       -1.46960        1.24479        0.00017  
 C       -0.72219        2.35371        0.00001  
 N        0.64789        2.08233       -0.00025  
 H        1.41158        2.74967       -0.00069  
 H       -1.10933        3.36604        0.00012  
 H        2.53107       -2.02993       -0.00107  
 15
 Clone # 1 / Geom #12, <SCF> = -467.02695187
 N        0.45100       -1.98464       -0.00066  
 C        1.66503       -1.36842       -0.00079  
 N        1.93086       -0.03360       -0.00059  
 C        0.79045        0.70003       -0.00034  
 C       -0.53110        0.20046       -0.00012  
 C       -0.67541       -1.20792       -0.00029  
 N       -1.88625       -1.82265       -0.00010  
 H       -2.73894       -1.27605       -0.00042  
 H       -1.91820       -2.83541       -0.00093  
 N       -1.46894        1.24521        0.00010  
 C       -0.72223        2.35471       -0.00002  
 N        0.64765        2.08261       -0.00023  
 H        1.41143        2.74983       -0.00059  
 H       -1.10940        3.36706        0.00011  
 H        2.53105       -2.03020       -0.00113  
 15
 Clone # 1 / Geom #13, <SCF> = -467.02695202
 N        0.45102       -1.98432       -0.00069  
 C        1.66510       -1.36816       -0.00077  
 N        1.93112       -0.03344       -0.00058  
 C        0.79059        0.69997       -0.00035  
 C       -0.53114        0.20065       -0.00010  
 C       -0.67547       -1.20770       -0.00031  
 N       -1.88634       -1.82240       -0.00013  
 H       -2.73902       -1.27576       -0.00042  
 H       -1.91832       -2.83515       -0.00094  
 N       -1.46942        1.24490        0.00017  
 C       -0.72221        2.35398        0.00000  
 N        0.64782        2.08241       -0.00027  
 H        1.41154        2.74971       -0.00066  
 H       -1.10936        3.36632        0.00013  
 H        2.53108       -2.03000       -0.00107  
 15
 Clone # 1 / Geom #14, <SCF> = -467.02695205
 N        0.45100       -1.98456       -0.00068  
 C        1.66504       -1.36835       -0.00077  
 N        1.93093       -0.03356       -0.00059  
 C        0.79049        0.70001       -0.00036  
 C       -0.53111        0.20051       -0.00012  
 C       -0.67543       -1.20786       -0.00031  
 N       -1.88628       -1.82258       -0.00013  
 H       -2.73896       -1.27597       -0.00040  
 H       -1.91822       -2.83534       -0.00091  
 N       -1.46907        1.24512        0.00012  
 C       -0.72222        2.35451       -0.00001  
 N        0.64770        2.08256       -0.00027  
 H        1.41146        2.74980       -0.00060  
 H       -1.10939        3.36686        0.00012  
 H        2.53106       -2.03015       -0.00110  
 15
 Clone # 1 / Geom #15, <SCF> = -467.02695210
 N        0.45102       -1.98439       -0.00069  
 C        1.66509       -1.36822       -0.00076  
 N        1.93107       -0.03348       -0.00058  
 C        0.79056        0.69998       -0.00037  
 C       -0.53113        0.20061       -0.00012  
 C       -0.67546       -1.20775       -0.00032  
 N       -1.88633       -1.82244       -0.00015  
 H       -2.73900       -1.27581       -0.00040  
 H       -1.91830       -2.83520       -0.00092  
 N       -1.46932        1.24496        0.00017  
 C       -0.72221        2.35413        0.00001  
 N        0.64778        2.08245       -0.00029  
 H        1.41151        2.74973       -0.00064  
 H       -1.10937        3.36647        0.00014  
 H        2.53108       -2.03004       -0.00106  
 15
 Clone # 1 / Geom #16, <SCF> = -467.02695210
 N        0.45100       -1.98452       -0.00068  
 C        1.66505       -1.36831       -0.00076  
 N        1.93096       -0.03353       -0.00059  
 C        0.79051        0.70001       -0.00037  
 C       -0.53111        0.20054       -0.00013  
 C       -0.67544       -1.20783       -0.00032  
 N       -1.88629       -1.82255       -0.00016  
 H       -2.73897       -1.27593       -0.00039  
 H       -1.91825       -2.83530       -0.00090  
 N       -1.46914        1.24508        0.00014  
 C       -0.72222        2.35440        0.00000  
 N        0.64772        2.08253       -0.00029  
 H        1.41147        2.74978       -0.00060  
 H       -1.10938        3.36675        0.00014  
 H        2.53106       -2.03011       -0.00108  
 15
 Clone # 1 / Geom #17, <SCF> = -467.02695212
 N        0.45101       -1.98442       -0.00069  
 C        1.66508       -1.36824       -0.00076  
 N        1.93104       -0.03349       -0.00059  
 C        0.79055        0.69999       -0.00038  
 C       -0.53112        0.20059       -0.00012  
 C       -0.67545       -1.20777       -0.00033  
 N       -1.88632       -1.82247       -0.00018  
 H       -2.73899       -1.27584       -0.00039  
 H       -1.91829       -2.83523       -0.00089  
 N       -1.46927        1.24499        0.00017  
 C       -0.72222        2.35420        0.00001  
 N        0.64776        2.08247       -0.00030  
 H        1.41150        2.74975       -0.00062  
 H       -1.10937        3.36655        0.00015  
 H        2.53108       -2.03006       -0.00106  
 15
 Clone # 1 / Geom #18, <SCF> = -467.02695212
 N        0.45101       -1.98446       -0.00069  
 C        1.66507       -1.36827       -0.00076  
 N        1.93101       -0.03351       -0.00059  
 C        0.79053        0.69999       -0.00038  
 C       -0.53112        0.20057       -0.00013  
 C       -0.67545       -1.20779       -0.00033  
 N       -1.88631       -1.82250       -0.00018  
 H       -2.73898       -1.27587       -0.00039  
 H       -1.91827       -2.83526       -0.00089  
 N       -1.46922        1.24502        0.00016  
 C       -0.72222        2.35427        0.00000  
 N        0.64775        2.08249       -0.00030  
 H        1.41149        2.74976       -0.00061  
 H       -1.10938        3.36662        0.00015  
 H        2.53107       -2.03008       -0.00106  
