 13
 Clone # 1 / Geom #1, <SCF> = -394.68732877
 N       -0.87800       -1.29400       -0.00100  
 C        0.54800       -1.17700        0.00000  
 N        1.04900        0.10000       -0.00100  
 C        0.23000        1.13600        0.00000  
 C       -1.20800        1.03300        0.00100  
 C       -1.71500       -0.22800        0.00000  
 H       -2.78000       -0.44000        0.00000  
 H       -1.85100        1.90400        0.00200  
 N        0.80000        2.37000       -0.00100  
 H        0.25400        3.21500        0.00000  
 H        1.80800        2.42800       -0.00100  
 O        1.20900       -2.20300        0.00000  
 H       -1.22800       -2.24300       -0.00200  
 13
 Clone # 1 / Geom #2, <SCF> = -394.68948651
 N       -0.88711       -1.31243       -0.00100  
 C        0.55509       -1.20362       -0.00021  
 N        1.04749        0.09517       -0.00102  
 C        0.22644        1.15931       -0.00008  
 C       -1.21606        1.04378        0.00089  
 C       -1.72889       -0.23041        0.00000  
 H       -2.79844       -0.43638        0.00006  
 H       -1.86438        1.91561        0.00176  
 N        0.80668        2.39955       -0.00091  
 H        0.26413        3.25302        0.00029  
 H        1.81957        2.44810       -0.00104  
 O        1.25674       -2.26571       -0.00001  
 H       -1.24327       -2.26498       -0.00173  
 13
 Clone # 1 / Geom #3, <SCF> = -394.69008056
 N       -0.88521       -1.31079       -0.00098  
 C        0.55254       -1.18156       -0.00034  
 N        1.05818        0.10527       -0.00096  
 C        0.22465        1.15417       -0.00011  
 C       -1.21717        1.03693        0.00083  
 C       -1.73046       -0.23504        0.00001  
 H       -2.80006       -0.44349        0.00010  
 H       -1.86900        1.90786        0.00160  
 N        0.81076        2.38733       -0.00084  
 H        0.27214        3.24343        0.00036  
 H        1.82448        2.42765       -0.00099  
 O        1.23234       -2.22418       -0.00014  
 H       -1.23519       -2.26657       -0.00152  
 13
 Clone # 1 / Geom #4, <SCF> = -394.69019483
 N       -0.88574       -1.31040       -0.00092  
 C        0.55655       -1.19494       -0.00045  
 N        1.05476        0.09854       -0.00093  
 C        0.22516        1.15632       -0.00014  
 C       -1.21507        1.04061        0.00071  
 C       -1.72834       -0.23126        0.00001  
 H       -2.79880       -0.43643        0.00018  
 H       -1.86636        1.91233        0.00136  
 N        0.80580        2.39345       -0.00077  
 H        0.26505        3.24840        0.00041  
 H        1.81933        2.43523       -0.00085  
 O        1.24528       -2.24654       -0.00035  
 H       -1.23961       -2.26430       -0.00126  
 13
 Clone # 1 / Geom #5, <SCF> = -394.69023591
 N       -0.88597       -1.31080       -0.00089  
 C        0.55499       -1.18642       -0.00053  
 N        1.05648        0.10380       -0.00091  
 C        0.22363        1.15604       -0.00018  
 C       -1.21674        1.03826        0.00065  
 C       -1.73021       -0.23413        0.00002  
 H       -2.80040       -0.44095        0.00020  
 H       -1.86926        1.90924        0.00126  
 N        0.80919        2.39010       -0.00072  
 H        0.27127        3.24663        0.00049  
 H        1.82306        2.42810       -0.00083  
 O        1.23877       -2.23276       -0.00042  
 H       -1.23681       -2.26611       -0.00113  
 13
 Clone # 1 / Geom #6, <SCF> = -394.69024824
 N       -0.88602       -1.31058       -0.00088  
 C        0.55635       -1.19124       -0.00058  
 N        1.05573        0.10070       -0.00084  
 C        0.22435        1.15629       -0.00018  
 C       -1.21550        1.03961        0.00060  
 C       -1.72897       -0.23257        0.00002  
 H       -2.79946       -0.43794        0.00026  
 H       -1.86765        1.91089        0.00118  
 N        0.80694        2.39221       -0.00069  
 H        0.26762        3.24797        0.00044  
 H        1.82067        2.43150       -0.00075  
 O        1.24225       -2.24063       -0.00052  
 H       -1.23831       -2.26521       -0.00107  
 13
 Clone # 1 / Geom #7, <SCF> = -394.69025236
 N       -0.88617       -1.31065       -0.00086  
 C        0.55584       -1.18816       -0.00059  
 N        1.05606        0.10276       -0.00075  
 C        0.22356        1.15627       -0.00019  
 C       -1.21637        1.03882        0.00057  
 C       -1.72984       -0.23358        0.00003  
 H       -2.80022       -0.43959        0.00028  
 H       -1.86897        1.90979        0.00113  
 N        0.80833        2.39090       -0.00067  
 H        0.27022        3.24732        0.00044  
 H        1.82219        2.42869       -0.00076  
 O        1.24064       -2.23576       -0.00060  
 H       -1.23727       -2.26580       -0.00104  
 13
 Clone # 1 / Geom #8, <SCF> = -394.69025379
 N       -0.88615       -1.31063       -0.00084  
 C        0.55634       -1.18990       -0.00064  
 N        1.05587        0.10157       -0.00079  
 C        0.22395        1.15636       -0.00022  
 C       -1.21581        1.03930        0.00054  
 C       -1.72927       -0.23303        0.00004  
 H       -2.79976       -0.43849        0.00028  
 H       -1.86829        1.91036        0.00108  
 N        0.80748        2.39173       -0.00063  
 H        0.26873        3.24780        0.00047  
 H        1.82126        2.43012       -0.00072  
 O        1.24148       -2.23866       -0.00062  
 H       -1.23782       -2.26552       -0.00095  
 13
 Clone # 1 / Geom #9, <SCF> = -394.69025424
 N       -0.88623       -1.31063       -0.00080  
 C        0.55615       -1.18876       -0.00068  
 N        1.05593        0.10233       -0.00081  
 C        0.22359        1.15635       -0.00024  
 C       -1.21620        1.03902        0.00050  
 C       -1.72964       -0.23340        0.00005  
 H       -2.80010       -0.43909        0.00031  
 H       -1.86884        1.90997        0.00100  
 N        0.80801        2.39120       -0.00059  
 H        0.26978        3.24756        0.00049  
 H        1.82186        2.42899       -0.00067  
 O        1.24114       -2.23681       -0.00068  
 H       -1.23745       -2.26572       -0.00087  
 13
 Clone # 1 / Geom #10, <SCF> = -394.69025446
 N       -0.88621       -1.31064       -0.00077  
 C        0.55631       -1.18938       -0.00070  
 N        1.05590        0.10189       -0.00082  
 C        0.22379        1.15639       -0.00026  
 C       -1.21594        1.03918        0.00047  
 C       -1.72939       -0.23321        0.00005  
 H       -2.79989       -0.43870        0.00030  
 H       -1.86854        1.91015        0.00097  
 N        0.80769        2.39155       -0.00057  
 H        0.26917        3.24775        0.00050  
 H        1.82151        2.42962       -0.00064  
 O        1.24123       -2.23794       -0.00071  
 H       -1.23762       -2.26564       -0.00082  
 13
 Clone # 1 / Geom #11, <SCF> = -394.69025451
 N       -0.88625       -1.31062       -0.00074  
 C        0.55627       -1.18899       -0.00073  
 N        1.05589        0.10216       -0.00083  
 C        0.22363        1.15637       -0.00027  
 C       -1.21612        1.03910        0.00044  
 C       -1.72956       -0.23333        0.00006  
 H       -2.80005       -0.43889        0.00032  
 H       -1.86876        1.91003        0.00090  
 N        0.80788        2.39132       -0.00053  
 H        0.26958        3.24764        0.00051  
 H        1.82172        2.42915       -0.00060  
 O        1.24127       -2.23725       -0.00077  
 H       -1.23750       -2.26569       -0.00076  
 13
 Clone # 1 / Geom #12, <SCF> = -394.69025455
 N       -0.88624       -1.31064       -0.00072  
 C        0.55631       -1.18919       -0.00074  
 N        1.05591        0.10201       -0.00083  
 C        0.22373        1.15640       -0.00028  
 C       -1.21599        1.03914        0.00042  
 C       -1.72945       -0.23328        0.00006  
 H       -2.79995       -0.43878        0.00033  
 H       -1.86863        1.91007        0.00088  
 N        0.80777        2.39147       -0.00051  
 H        0.26934        3.24772        0.00051  
 H        1.82160        2.42943       -0.00058  
 O        1.24114       -2.23766       -0.00080  
 H       -1.23754       -2.26569       -0.00073  
